data_image0
_chemical_formula_structural       MoFe15
_chemical_formula_sum              "Mo1 Fe15"
_cell_length_a       5.720872885313261
_cell_length_b       5.7208728853132635
_cell_length_c       5.720872885410268
_cell_angle_alpha    90.0
_cell_angle_beta     90.0
_cell_angle_gamma    90.0

_space_group_name_H-M_alt    "P 1"
_space_group_IT_number       1

loop_
  _space_group_symop_operation_xyz
  'x, y, z'

loop_
  _atom_site_type_symbol
  _atom_site_label
  _atom_site_symmetry_multiplicity
  _atom_site_fract_x
  _atom_site_fract_y
  _atom_site_fract_z
  _atom_site_occupancy
  Mo  Mo1       1.0  1.3317720367560874e-15  1.6281313425118235e-15  1.7807154289430166e-15  1.0000
  Fe  Fe1       1.0  0.25267012654730775  0.25267012654730814  0.25267012654737325  1.0000
  Fe  Fe2       1.0  1.3056379908538814e-15  1.5648178648920403e-15  0.500000000000002  1.0000
  Fe  Fe3       1.0  0.25267012654730775  0.25267012654730814  0.7473298734526305  1.0000
  Fe  Fe4       1.0  1.2727449078075543e-15  0.5000000000000017  1.7244951827688748e-15  1.0000
  Fe  Fe5       1.0  0.25267012654730775  0.7473298734526954  0.25267012654737325  1.0000
  Fe  Fe6       1.0  1.2899793548512116e-15  0.5000000000000017  0.500000000000002  1.0000
  Fe  Fe7       1.0  0.25267012654730775  0.7473298734526954  0.7473298734526305  1.0000
  Fe  Fe8       1.0  0.5000000000000014  1.5865532169353717e-15  1.747651180820752e-15  1.0000
  Fe  Fe9       1.0  0.7473298734526945  0.252670126547308  0.25267012654737325  1.0000
  Fe  Fe10      1.0  0.5000000000000014  1.6057503989060117e-15  0.500000000000002  1.0000
  Fe  Fe11      1.0  0.7473298734526945  0.2526701265473081  0.7473298734526304  1.0000
  Fe  Fe12      1.0  0.5000000000000016  0.5000000000000019  1.7357493659090393e-15  1.0000
  Fe  Fe13      1.0  0.7473298734526945  0.7473298734526954  0.25267012654737325  1.0000
  Fe  Fe14      1.0  0.5000000000000014  0.5000000000000019  0.500000000000002  1.0000
  Fe  Fe15      1.0  0.7473298734526945  0.7473298734526952  0.7473298734526305  1.0000
