data_image0
_chemical_formula_structural       MoFe15
_chemical_formula_sum              "Mo1 Fe15"
_cell_length_a       5.74
_cell_length_b       5.74
_cell_length_c       5.74
_cell_angle_alpha    90.0
_cell_angle_beta     90.0
_cell_angle_gamma    90.0

_space_group_name_H-M_alt    "P 1"
_space_group_IT_number       1

loop_
  _space_group_symop_operation_xyz
  'x, y, z'

loop_
  _atom_site_type_symbol
  _atom_site_label
  _atom_site_symmetry_multiplicity
  _atom_site_fract_x
  _atom_site_fract_y
  _atom_site_fract_z
  _atom_site_occupancy
  Mo  Mo1       1.0  0.0  0.0  0.0  1.0000
  Fe  Fe1       1.0  0.25  0.25  0.25  1.0000
  Fe  Fe2       1.0  0.0  0.0  0.5  1.0000
  Fe  Fe3       1.0  0.25  0.25  0.7499999999999999  1.0000
  Fe  Fe4       1.0  0.0  0.5  0.0  1.0000
  Fe  Fe5       1.0  0.25  0.7499999999999999  0.25  1.0000
  Fe  Fe6       1.0  0.0  0.5  0.5  1.0000
  Fe  Fe7       1.0  0.25  0.7499999999999999  0.7499999999999999  1.0000
  Fe  Fe8       1.0  0.5  0.0  0.0  1.0000
  Fe  Fe9       1.0  0.7499999999999999  0.25  0.25  1.0000
  Fe  Fe10      1.0  0.5  0.0  0.5  1.0000
  Fe  Fe11      1.0  0.7499999999999999  0.25  0.7499999999999999  1.0000
  Fe  Fe12      1.0  0.5  0.5  0.0  1.0000
  Fe  Fe13      1.0  0.7499999999999999  0.7499999999999999  0.25  1.0000
  Fe  Fe14      1.0  0.5  0.5  0.5  1.0000
  Fe  Fe15      1.0  0.7499999999999999  0.7499999999999999  0.7499999999999999  1.0000
